Network_data/Network_model/Feeder3/OpenDSS_Lines.txt
New Line.Feeder3_LINE1 Bus1=secondary Bus2=Feeder3_23 Linecode=3c_300_SAC_XC Length=0.046452 phases=3 Units=km
New Line.Feeder3_LINE2 Bus1=Feeder3_23 Bus2=Feeder3_78 Linecode=35_SAC_XC Length=0.014946 phases=3 Units=km
New Line.Feeder3_LINE3 Bus1=Feeder3_23 Bus2=Feeder3_125 Linecode=3c_300_SAC_XC Length=0.094889 phases=3 Units=km
New Line.Feeder3_LINE4 Bus1=Feeder3_125 Bus2=Feeder3_173 Linecode=3c_185_SAC_XC Length=0.0056994 phases=3 Units=km
New Line.Feeder3_LINE5 Bus1=Feeder3_125 Bus2=Feeder3_216 Linecode=3c_300_SAC_XC Length=0.033596 phases=3 Units=km
New Line.Feeder3_LINE6 Bus1=Feeder3_173 Bus2=Feeder3_177 Linecode=25_SAC_XC Length=0.0018222 phases=3 Units=km
New Line.Feeder3_LINE7 Bus1=Feeder3_216 Bus2=Feeder3_239 Linecode=3c_300_SAC_XC Length=0.0043904 phases=3 Units=km
New Line.Feeder3_LINE8 Bus1=Feeder3_216 Bus2=Feeder3_220 Linecode=25_SAC_XC Length=7.2801e-05 phases=3 Units=km
New Line.Feeder3_LINE9 Bus1=Feeder3_239 Bus2=Feeder3_288 Linecode=3c_185_SAC_XC Length=0.020579 phases=3 Units=km
New Line.Feeder3_LINE10 Bus1=Feeder3_239 Bus2=Feeder3_242 Linecode=3c_300_SAC_XC Length=0.00050799 phases=3 Units=km
New Line.Feeder3_LINE11 Bus1=Feeder3_242 Bus2=Feeder3_405 Linecode=35_SAC_XC Length=0.022263 phases=3 Units=km
New Line.Feeder3_LINE12 Bus1=Feeder3_242 Bus2=Feeder3_250 Linecode=3c_300_SAC_XC Length=0.008858 phases=3 Units=km
New Line.Feeder3_LINE13 Bus1=Feeder3_250 Bus2=Feeder3_290 Linecode=35_SAC_XC Length=0.0083833 phases=3 Units=km
New Line.Feeder3_LINE14 Bus1=Feeder3_250 Bus2=Feeder3_255 Linecode=3c_300_SAC_XC Length=0.0043401 phases=3 Units=km
New Line.Feeder3_LINE15 Bus1=Feeder3_255 Bus2=Feeder3_370 Linecode=35_SAC_XC Length=0.0075538 phases=3 Units=km
New Line.Feeder3_LINE16 Bus1=Feeder3_255 Bus2=Feeder3_262 Linecode=3c_300_SAC_XC Length=0.0082719 phases=3 Units=km
New Line.Feeder3_LINE17 Bus1=Feeder3_262 Bus2=Feeder3_371 Linecode=35_SAC_XC Length=0.0087216 phases=3 Units=km
New Line.Feeder3_LINE18 Bus1=Feeder3_262 Bus2=Feeder3_269 Linecode=3c_300_SAC_XC Length=0.0041639 phases=3 Units=km
New Line.Feeder3_LINE19 Bus1=Feeder3_269 Bus2=Feeder3_389 Linecode=35_SAC_XC Length=0.00847 phases=3 Units=km
New Line.Feeder3_LINE20 Bus1=Feeder3_269 Bus2=Feeder3_277 Linecode=3c_300_SAC_XC Length=0.0098398 phases=3 Units=km
New Line.Feeder3_LINE21 Bus1=Feeder3_277 Bus2=Feeder3_421 Linecode=35_SAC_XC Length=0.0074867 phases=3 Units=km
New Line.Feeder3_LINE22 Bus1=Feeder3_277 Bus2=Feeder3_286 Linecode=3c_300_SAC_XC Length=0.0017813 phases=3 Units=km
New Line.Feeder3_LINE23 Bus1=Feeder3_286 Bus2=Feeder3_436 Linecode=35_SAC_XC Length=0.007651 phases=3 Units=km
New Line.Feeder3_LINE24 Bus1=Feeder3_286 Bus2=Feeder3_296 Linecode=3c_300_SAC_XC Length=0.0073814 phases=3 Units=km
New Line.Feeder3_LINE25 Bus1=Feeder3_288 Bus2=Feeder3_590 Linecode=35_SAC_XC Length=0.01999 phases=3 Units=km
New Line.Feeder3_LINE26 Bus1=Feeder3_288 Bus2=Feeder3_521 Linecode=35_SAC_XC Length=0.011042 phases=3 Units=km
New Line.Feeder3_LINE27 Bus1=Feeder3_288 Bus2=Feeder3_300 Linecode=3c_185_SAC_XC Length=0.0085957 phases=3 Units=km
New Line.Feeder3_LINE28 Bus1=Feeder3_296 Bus2=Feeder3_437 Linecode=35_SAC_XC Length=0.0073791 phases=3 Units=km
New Line.Feeder3_LINE29 Bus1=Feeder3_296 Bus2=Feeder3_308 Linecode=3c_300_SAC_XC Length=0.0054179 phases=3 Units=km
New Line.Feeder3_LINE30 Bus1=Feeder3_300 Bus2=Feeder3_556 Linecode=35_SAC_XC Length=0.020965 phases=3 Units=km
New Line.Feeder3_LINE31 Bus1=Feeder3_300 Bus2=Feeder3_562 Linecode=35_SAC_XC Length=0.010312 phases=3 Units=km
New Line.Feeder3_LINE32 Bus1=Feeder3_300 Bus2=Feeder3_552 Linecode=3c_185_SAC_XC Length=0.013923 phases=3 Units=km
New Line.Feeder3_LINE33 Bus1=Feeder3_308 Bus2=Feeder3_473 Linecode=35_SAC_XC Length=0.0070659 phases=3 Units=km
New Line.Feeder3_LINE34 Bus1=Feeder3_308 Bus2=Feeder3_323 Linecode=3c_300_SAC_XC Length=0.0079236 phases=3 Units=km
New Line.Feeder3_LINE35 Bus1=Feeder3_323 Bus2=Feeder3_495 Linecode=35_SAC_XC Length=0.0093796 phases=3 Units=km
New Line.Feeder3_LINE36 Bus1=Feeder3_323 Bus2=Feeder3_360 Linecode=3c_300_SAC_XC Length=0.0055549 phases=3 Units=km
New Line.Feeder3_LINE37 Bus1=Feeder3_360 Bus2=Feeder3_544 Linecode=35_SAC_XC Length=0.018207 phases=3 Units=km
New Line.Feeder3_LINE38 Bus1=Feeder3_360 Bus2=Feeder3_595 Linecode=3c_300_SAC_XC Length=0.021049 phases=3 Units=km
New Line.Feeder3_LINE39 Bus1=Feeder3_595 Bus2=Feeder3_597 Linecode=3c_300_SAC_XC Length=0.0053952 phases=3 Units=km
New Line.Feeder3_LINE40 Bus1=Feeder3_595 Bus2=Feeder3_632 Linecode=3c_185_SAC_XC Length=0.023267 phases=3 Units=km
New Line.Feeder3_LINE41 Bus1=Feeder3_597 Bus2=Feeder3_882 Linecode=35_SAC_XC Length=0.024562 phases=3 Units=km
New Line.Feeder3_LINE42 Bus1=Feeder3_597 Bus2=Feeder3_601 Linecode=3c_300_SAC_XC Length=0.0059793 phases=3 Units=km
New Line.Feeder3_LINE43 Bus1=Feeder3_601 Bus2=Feeder3_646 Linecode=35_SAC_XC Length=0.0081212 phases=3 Units=km
New Line.Feeder3_LINE44 Bus1=Feeder3_601 Bus2=Feeder3_610 Linecode=3c_300_SAC_XC Length=0.0074798 phases=3 Units=km
New Line.Feeder3_LINE45 Bus1=Feeder3_610 Bus2=Feeder3_614 Linecode=3c_300_SAC_XC Length=0.0045686 phases=3 Units=km
New Line.Feeder3_LINE46 Bus1=Feeder3_610 Bus2=Feeder3_752 Linecode=35_SAC_XC Length=0.0092978 phases=3 Units=km
New Line.Feeder3_LINE47 Bus1=Feeder3_614 Bus2=Feeder3_627 Linecode=3c_300_SAC_XC Length=0.0059841 phases=3 Units=km
New Line.Feeder3_LINE48 Bus1=Feeder3_614 Bus2=Feeder3_668 Linecode=35_SAC_XC Length=0.0084768 phases=3 Units=km
New Line.Feeder3_LINE49 Bus1=Feeder3_627 Bus2=Feeder3_635 Linecode=3c_300_SAC_XC Length=0.0063925 phases=3 Units=km
New Line.Feeder3_LINE50 Bus1=Feeder3_627 Bus2=Feeder3_700 Linecode=35_SAC_XC Length=0.0088487 phases=3 Units=km
New Line.Feeder3_LINE51 Bus1=Feeder3_632 Bus2=Feeder3_801 Linecode=35_SAC_XC Length=0.011072 phases=3 Units=km
New Line.Feeder3_LINE52 Bus1=Feeder3_632 Bus2=Feeder3_856 Linecode=35_SAC_XC Length=0.012307 phases=3 Units=km
New Line.Feeder3_LINE53 Bus1=Feeder3_632 Bus2=Feeder3_857 Linecode=35_SAC_XC Length=0.013222 phases=3 Units=km
New Line.Feeder3_LINE54 Bus1=Feeder3_632 Bus2=Feeder3_644 Linecode=3c_185_SAC_XC Length=0.011315 phases=3 Units=km
New Line.Feeder3_LINE55 Bus1=Feeder3_635 Bus2=Feeder3_647 Linecode=3c_300_SAC_XC Length=0.0071424 phases=3 Units=km
New Line.Feeder3_LINE56 Bus1=Feeder3_635 Bus2=Feeder3_734 Linecode=35_SAC_XC Length=0.0074265 phases=3 Units=km
New Line.Feeder3_LINE57 Bus1=Feeder3_644 Bus2=Feeder3_859 Linecode=35_SAC_XC Length=0.015256 phases=3 Units=km
New Line.Feeder3_LINE58 Bus1=Feeder3_644 Bus2=Feeder3_881 Linecode=35_SAC_XC Length=0.011627 phases=3 Units=km
New Line.Feeder3_LINE59 Bus1=Feeder3_644 Bus2=Feeder3_861 Linecode=35_SAC_XC Length=0.013194 phases=3 Units=km
New Line.Feeder3_LINE60 Bus1=Feeder3_647 Bus2=Feeder3_663 Linecode=3c_300_SAC_XC Length=0.0038837 phases=3 Units=km
New Line.Feeder3_LINE61 Bus1=Feeder3_647 Bus2=Feeder3_785 Linecode=35_SAC_XC Length=0.0096772 phases=3 Units=km
New Line.Feeder3_LINE62 Bus1=Feeder3_663 Bus2=Feeder3_679 Linecode=3c_300_SAC_XC Length=0.0077287 phases=3 Units=km
New Line.Feeder3_LINE63 Bus1=Feeder3_663 Bus2=Feeder3_800 Linecode=35_SAC_XC Length=0.0088242 phases=3 Units=km
New Line.Feeder3_LINE64 Bus1=Feeder3_679 Bus2=Feeder3_694 Linecode=3c_300_SAC_XC Length=0.0040328 phases=3 Units=km
New Line.Feeder3_LINE65 Bus1=Feeder3_679 Bus2=Feeder3_799 Linecode=35_SAC_XC Length=0.009957 phases=3 Units=km
New Line.Feeder3_LINE66 Bus1=Feeder3_694 Bus2=Feeder3_710 Linecode=3c_300_SAC_XC Length=0.0046967 phases=3 Units=km
New Line.Feeder3_LINE67 Bus1=Feeder3_694 Bus2=Feeder3_798 Linecode=35_SAC_XC Length=0.0095041 phases=3 Units=km
New Line.Feeder3_LINE68 Bus1=Feeder3_710 Bus2=Feeder3_745 Linecode=3c_300_SAC_XC Length=0.0057944 phases=3 Units=km
New Line.Feeder3_LINE69 Bus1=Feeder3_710 Bus2=Feeder3_826 Linecode=35_SAC_XC Length=0.0087413 phases=3 Units=km
New Line.Feeder3_LINE70 Bus1=Feeder3_745 Bus2=Feeder3_762 Linecode=3c_300_SAC_XC Length=0.00442 phases=3 Units=km
New Line.Feeder3_LINE71 Bus1=Feeder3_745 Bus2=Feeder3_928 Linecode=35_SAC_XC Length=0.026264 phases=3 Units=km
New Line.Feeder3_LINE72 Bus1=Feeder3_762 Bus2=Feeder3_913 Linecode=3c_300_SAC_XC Length=0.020851 phases=3 Units=km
New Line.Feeder3_LINE73 Bus1=Feeder3_762 Bus2=Feeder3_937 Linecode=3c_185_SAC_XC Length=0.026931 phases=3 Units=km
New Line.Feeder3_LINE74 Bus1=Feeder3_801 Bus2=Feeder3_903 Linecode=35_SAC_XC Length=0.0045208 phases=3 Units=km
New Line.Feeder3_LINE75 Bus1=Feeder3_801 Bus2=Feeder3_973 Linecode=35_SAC_XC Length=0.011845 phases=3 Units=km
New Line.Feeder3_LINE76 Bus1=Feeder3_859 Bus2=Feeder3_871 Linecode=35_SAC_XC Length=0.016665 phases=3 Units=km
New Line.Feeder3_LINE77 Bus1=Feeder3_859 Bus2=Feeder3_872 Linecode=35_SAC_XC Length=0.00070753 phases=3 Units=km
New Line.Feeder3_LINE78 Bus1=Feeder3_913 Bus2=Feeder3_917 Linecode=3c_95_SAC_XC Length=5.3852e-05 phases=3 Units=km
New Line.Feeder3_LINE79 Bus1=Feeder3_917 Bus2=Feeder3_921 Linecode=3c_300_SAC_XC Length=0.001441 phases=3 Units=km
New Line.Feeder3_LINE80 Bus1=Feeder3_921 Bus2=Feeder3_1193 Linecode=3c_95_SAC_XC Length=0.022716 phases=3 Units=km
New Line.Feeder3_LINE81 Bus1=Feeder3_921 Bus2=Feeder3_954 Linecode=3c_300_SAC_XC Length=0.022558 phases=3 Units=km
New Line.Feeder3_LINE82 Bus1=Feeder3_937 Bus2=Feeder3_1265 Linecode=35_SAC_XC Length=0.022141 phases=3 Units=km
New Line.Feeder3_LINE83 Bus1=Feeder3_937 Bus2=Feeder3_943 Linecode=3c_185_SAC_XC Length=0.0025104 phases=3 Units=km
New Line.Feeder3_LINE84 Bus1=Feeder3_943 Bus2=Feeder3_1116 Linecode=35_SAC_XC Length=0.0064301 phases=3 Units=km
New Line.Feeder3_LINE85 Bus1=Feeder3_943 Bus2=Feeder3_1117 Linecode=35_SAC_XC Length=0.0062386 phases=3 Units=km
New Line.Feeder3_LINE86 Bus1=Feeder3_943 Bus2=Feeder3_951 Linecode=3c_185_SAC_XC Length=0.00456 phases=3 Units=km
New Line.Feeder3_LINE87 Bus1=Feeder3_951 Bus2=Feeder3_1301 Linecode=35_SAC_XC Length=0.022047 phases=3 Units=km
New Line.Feeder3_LINE88 Bus1=Feeder3_951 Bus2=Feeder3_1289 Linecode=35_SAC_XC Length=0.020483 phases=3 Units=km
New Line.Feeder3_LINE89 Bus1=Feeder3_951 Bus2=Feeder3_1006 Linecode=3c_185_SAC_XC Length=0.012684 phases=3 Units=km
New Line.Feeder3_LINE90 Bus1=Feeder3_954 Bus2=Feeder3_1070 Linecode=3c_95_SAC_XC Length=0.010104 phases=3 Units=km
New Line.Feeder3_LINE91 Bus1=Feeder3_954 Bus2=Feeder3_965 Linecode=3c_300_SAC_XC Length=0.0067407 phases=3 Units=km
New Line.Feeder3_LINE92 Bus1=Feeder3_965 Bus2=Feeder3_976 Linecode=25_SAC_XC Length=0.0039108 phases=3 Units=km
New Line.Feeder3_LINE93 Bus1=Feeder3_965 Bus2=Feeder3_988 Linecode=3c_300_SAC_XC Length=0.0041601 phases=3 Units=km
New Line.Feeder3_LINE94 Bus1=Feeder3_988 Bus2=Feeder3_998 Linecode=25_SAC_XC Length=0.0059179 phases=3 Units=km
New Line.Feeder3_LINE95 Bus1=Feeder3_988 Bus2=Feeder3_999 Linecode=3c_300_SAC_XC Length=0.0010473 phases=3 Units=km
New Line.Feeder3_LINE96 Bus1=Feeder3_999 Bus2=Feeder3_1010 Linecode=25_SAC_XC Length=0.0078937 phases=3 Units=km
New Line.Feeder3_LINE97 Bus1=Feeder3_999 Bus2=Feeder3_1011 Linecode=3c_300_SAC_XC Length=0.01287 phases=3 Units=km
New Line.Feeder3_LINE98 Bus1=Feeder3_1006 Bus2=Feeder3_1225 Linecode=35_SAC_XC Length=0.008131 phases=3 Units=km
New Line.Feeder3_LINE99 Bus1=Feeder3_1006 Bus2=Feeder3_1019 Linecode=3c_185_SAC_XC Length=1e-05 phases=3 Units=km
New Line.Feeder3_LINE100 Bus1=Feeder3_1011 Bus2=Feeder3_1239 Linecode=3c_95_SAC_XC Length=0.012489 phases=3 Units=km
New Line.Feeder3_LINE101 Bus1=Feeder3_1011 Bus2=Feeder3_1024 Linecode=3c_300_SAC_XC Length=0.012901 phases=3 Units=km
New Line.Feeder3_LINE102 Bus1=Feeder3_1019 Bus2=Feeder3_1235 Linecode=35_SAC_XC Length=0.014294 phases=3 Units=km
New Line.Feeder3_LINE103 Bus1=Feeder3_1019 Bus2=Feeder3_1068 Linecode=3c_185_SAC_XC Length=0.0035602 phases=3 Units=km
New Line.Feeder3_LINE104 Bus1=Feeder3_1024 Bus2=Feeder3_1158 Linecode=3c_95_SAC_XC Length=0.009375 phases=3 Units=km
New Line.Feeder3_LINE105 Bus1=Feeder3_1024 Bus2=Feeder3_1097 Linecode=3c_300_SAC_XC Length=0.0074147 phases=3 Units=km
New Line.Feeder3_LINE106 Bus1=Feeder3_1068 Bus2=Feeder3_1087 Linecode=25_SAC_XC Length=0.0019077 phases=3 Units=km
New Line.Feeder3_LINE107 Bus1=Feeder3_1070 Bus2=Feeder3_1089 Linecode=25_SAC_XC Length=0.014287 phases=3 Units=km
New Line.Feeder3_LINE108 Bus1=Feeder3_1070 Bus2=Feeder3_1090 Linecode=25_SAC_XC Length=0.0051907 phases=3 Units=km
New Line.Feeder3_LINE109 Bus1=Feeder3_1070 Bus2=Feeder3_1091 Linecode=25_SAC_XC Length=0.0041717 phases=3 Units=km
New Line.Feeder3_LINE110 Bus1=Feeder3_1070 Bus2=Feeder3_1092 Linecode=25_SAC_XC Length=0.0052785 phases=3 Units=km
New Line.Feeder3_LINE111 Bus1=Feeder3_1097 Bus2=Feeder3_1113 Linecode=25_SAC_XC Length=0.0044509 phases=3 Units=km
New Line.Feeder3_LINE112 Bus1=Feeder3_1097 Bus2=Feeder3_1231 Linecode=3c_300_SAC_XC Length=0.017054 phases=3 Units=km
New Line.Feeder3_LINE113 Bus1=Feeder3_1116 Bus2=Feeder3_1132 Linecode=35_SAC_XC Length=0.0012981 phases=3 Units=km
New Line.Feeder3_LINE114 Bus1=Feeder3_1158 Bus2=Feeder3_1169 Linecode=25_SAC_XC Length=0.0078723 phases=3 Units=km
New Line.Feeder3_LINE115 Bus1=Feeder3_1158 Bus2=Feeder3_1170 Linecode=25_SAC_XC Length=0.0041199 phases=3 Units=km
New Line.Feeder3_LINE116 Bus1=Feeder3_1158 Bus2=Feeder3_1171 Linecode=25_SAC_XC Length=0.0030681 phases=3 Units=km
New Line.Feeder3_LINE117 Bus1=Feeder3_1158 Bus2=Feeder3_1172 Linecode=25_SAC_XC Length=0.007857 phases=3 Units=km
New Line.Feeder3_LINE118 Bus1=Feeder3_1158 Bus2=Feeder3_1173 Linecode=25_SAC_XC Length=0.0051704 phases=3 Units=km
New Line.Feeder3_LINE119 Bus1=Feeder3_1158 Bus2=Feeder3_1174 Linecode=25_SAC_XC Length=0.0053379 phases=3 Units=km
New Line.Feeder3_LINE120 Bus1=Feeder3_1193 Bus2=Feeder3_1203 Linecode=25_SAC_XC Length=0.01046 phases=3 Units=km
New Line.Feeder3_LINE121 Bus1=Feeder3_1193 Bus2=Feeder3_1204 Linecode=25_SAC_XC Length=0.0074044 phases=3 Units=km
New Line.Feeder3_LINE122 Bus1=Feeder3_1193 Bus2=Feeder3_1205 Linecode=25_SAC_XC Length=0.0044995 phases=3 Units=km
New Line.Feeder3_LINE123 Bus1=Feeder3_1193 Bus2=Feeder3_1206 Linecode=25_SAC_XC Length=0.0031281 phases=3 Units=km
New Line.Feeder3_LINE124 Bus1=Feeder3_1193 Bus2=Feeder3_1207 Linecode=25_SAC_XC Length=0.0046803 phases=3 Units=km
New Line.Feeder3_LINE125 Bus1=Feeder3_1193 Bus2=Feeder3_1208 Linecode=25_SAC_XC Length=0.0050681 phases=3 Units=km
New Line.Feeder3_LINE126 Bus1=Feeder3_1193 Bus2=Feeder3_1209 Linecode=25_SAC_XC Length=0.0061972 phases=3 Units=km
New Line.Feeder3_LINE127 Bus1=Feeder3_1193 Bus2=Feeder3_1210 Linecode=25_SAC_XC Length=0.0086201 phases=3 Units=km
New Line.Feeder3_LINE128 Bus1=Feeder3_1231 Bus2=Feeder3_1241 Linecode=25_SAC_XC Length=0.0070644 phases=3 Units=km
New Line.Feeder3_LINE129 Bus1=Feeder3_1231 Bus2=Feeder3_1318 Linecode=3c_300_SAC_XC Length=0.0093547 phases=3 Units=km
New Line.Feeder3_LINE130 Bus1=Feeder3_1239 Bus2=Feeder3_1248 Linecode=25_SAC_XC Length=0.0085703 phases=3 Units=km
New Line.Feeder3_LINE131 Bus1=Feeder3_1239 Bus2=Feeder3_1249 Linecode=25_SAC_XC Length=0.0058694 phases=3 Units=km
New Line.Feeder3_LINE132 Bus1=Feeder3_1239 Bus2=Feeder3_1250 Linecode=25_SAC_XC Length=0.0030676 phases=3 Units=km
New Line.Feeder3_LINE133 Bus1=Feeder3_1239 Bus2=Feeder3_1251 Linecode=25_SAC_XC Length=0.0020025 phases=3 Units=km
New Line.Feeder3_LINE134 Bus1=Feeder3_1239 Bus2=Feeder3_1252 Linecode=25_SAC_XC Length=0.0044598 phases=3 Units=km
New Line.Feeder3_LINE135 Bus1=Feeder3_1239 Bus2=Feeder3_1253 Linecode=25_SAC_XC Length=0.0055362 phases=3 Units=km
New Line.Feeder3_LINE136 Bus1=Feeder3_1239 Bus2=Feeder3_1254 Linecode=25_SAC_XC Length=0.0044688 phases=3 Units=km
New Line.Feeder3_LINE137 Bus1=Feeder3_1239 Bus2=Feeder3_1255 Linecode=25_SAC_XC Length=0.0057245 phases=3 Units=km
New Line.Feeder3_LINE138 Bus1=Feeder3_1318 Bus2=Feeder3_1350 Linecode=35_SAC_XC Length=0.016743 phases=3 Units=km
New Line.Feeder3_LINE139 Bus1=Feeder3_1318 Bus2=Feeder3_1347 Linecode=35_SAC_XC Length=0.0058336 phases=3 Units=km
New Line.Feeder3_LINE140 Bus1=Feeder3_1318 Bus2=Feeder3_1370 Linecode=3c_300_SAC_XC Length=0.014356 phases=3 Units=km
New Line.Feeder3_LINE141 Bus1=Feeder3_1347 Bus2=Feeder3_1351 Linecode=35_SAC_XC Length=0.0087328 phases=3 Units=km
New Line.Feeder3_LINE142 Bus1=Feeder3_1347 Bus2=Feeder3_1352 Linecode=35_SAC_XC Length=0.005303 phases=3 Units=km
New Line.Feeder3_LINE143 Bus1=Feeder3_1370 Bus2=Feeder3_1371 Linecode=3c_95_SAC_XC Length=0.0046215 phases=3 Units=km
New Line.Feeder3_LINE144 Bus1=Feeder3_1370 Bus2=Feeder3_1372 Linecode=3c_95_SAC_XC Length=0.0014624 phases=3 Units=km
New Line.Feeder3_LINE145 Bus1=Feeder3_1370 Bus2=Feeder3_1373 Linecode=3c_95_SAC_XC Length=0.0047727 phases=3 Units=km
New Line.Feeder3_LINE146 Bus1=Feeder3_1370 Bus2=Feeder3_1374 Linecode=3c_95_SAC_XC Length=0.007211 phases=3 Units=km
New Line.Feeder3_LINE147 Bus1=Feeder3_1370 Bus2=Feeder3_1375 Linecode=3c_95_SAC_XC Length=0.007596 phases=3 Units=km
New Line.Feeder3_LINE148 Bus1=Feeder3_1370 Bus2=Feeder3_1376 Linecode=3c_95_SAC_XC Length=0.013356 phases=3 Units=km
New Line.Feeder3_LINE149 Bus1=Feeder3_1370 Bus2=Feeder3_1377 Linecode=3c_95_SAC_XC Length=0.009369 phases=3 Units=km
